Version 4
SHEET 1 2384 1380
WIRE 1872 -432 1840 -432
WIRE 1840 -416 1840 -432
WIRE 1872 -368 1872 -432
WIRE 1840 -320 1824 -320
WIRE 512 -256 304 -256
WIRE 672 -256 512 -256
WIRE 816 -256 672 -256
WIRE 1376 -256 816 -256
WIRE 1536 -256 1376 -256
WIRE 1680 -256 1536 -256
WIRE 1680 -240 1680 -256
WIRE 1744 -240 1680 -240
WIRE 1824 -240 1824 -320
WIRE 1872 -240 1872 -368
WIRE 1904 -240 1872 -240
WIRE 2208 -240 2000 -240
WIRE 304 -192 304 -256
WIRE 816 -112 816 -256
WIRE 512 -96 512 -256
WIRE 1376 -96 1376 -256
WIRE 1680 -80 1680 -240
WIRE 1728 -80 1680 -80
WIRE 1840 -80 1792 -80
WIRE 1952 -80 1952 -176
WIRE 1952 -80 1904 -80
WIRE 2000 -80 1952 -80
WIRE 2112 -80 2080 -80
WIRE -48 32 -80 32
WIRE 80 32 32 32
WIRE 2208 32 2208 -240
WIRE 672 64 672 -256
WIRE 1536 64 1536 -256
WIRE 80 80 80 32
WIRE 224 80 80 80
WIRE 368 80 304 80
WIRE 640 80 368 80
WIRE 1504 80 1440 80
WIRE -80 96 -80 32
WIRE 816 96 816 -32
WIRE 816 96 704 96
WIRE 912 96 816 96
WIRE 1008 96 992 96
WIRE 1440 96 1440 80
WIRE 1440 96 1008 96
WIRE 2080 96 1568 96
WIRE 2208 96 2208 32
WIRE 2208 96 2080 96
WIRE 80 112 80 80
WIRE 368 112 368 80
WIRE 512 112 512 -16
WIRE 640 112 512 112
WIRE 1376 112 1376 -16
WIRE 1504 112 1376 112
WIRE 2080 112 2080 96
WIRE 512 128 512 112
WIRE 1376 128 1376 112
WIRE 1008 160 1008 96
WIRE 1872 176 1840 176
WIRE 672 192 672 128
WIRE 1536 192 1536 128
WIRE 1840 192 1840 176
WIRE 2080 192 2080 176
WIRE 2080 192 2048 192
WIRE 80 208 80 192
WIRE 368 208 368 176
WIRE -80 224 -80 176
WIRE 1008 240 1008 224
WIRE 1872 240 1872 176
WIRE 1840 288 1824 288
WIRE -80 320 -80 304
WIRE 1488 368 1328 368
WIRE 1680 368 1680 -80
WIRE 1680 368 1488 368
WIRE 1744 368 1680 368
WIRE 1824 368 1824 288
WIRE 1872 368 1872 240
WIRE 1904 368 1872 368
WIRE 2208 368 2000 368
WIRE 1680 528 1680 368
WIRE 1728 528 1680 528
WIRE 1840 528 1792 528
WIRE 1952 528 1952 432
WIRE 1952 528 1904 528
WIRE 2000 528 1952 528
WIRE 2112 528 2080 528
WIRE 1328 560 1328 368
WIRE 1488 704 1488 368
WIRE 816 720 816 96
WIRE 896 720 816 720
WIRE 1184 720 960 720
WIRE 1456 720 1184 720
WIRE 2208 720 2208 368
WIRE 1184 736 1184 720
WIRE 2080 736 1520 736
WIRE 1328 752 1328 640
WIRE 1456 752 1328 752
WIRE 1328 768 1328 752
WIRE 2080 784 2080 736
WIRE 2208 784 2208 720
WIRE 2208 784 2080 784
WIRE 2080 816 2080 784
WIRE 1488 848 1488 768
WIRE 1328 864 1328 848
WIRE 2080 896 2080 880
FLAG -80 320 0
FLAG 80 208 0
FLAG 368 208 0
FLAG 304 -112 0
FLAG 512 208 0
FLAG 672 192 0
FLAG 1008 240 0
FLAG 2112 -80 0
FLAG 2208 32 vramp
FLAG 2112 528 0
FLAG 2208 720 hramp
FLAG 1184 816 0
FLAG 1328 864 0
FLAG 1488 848 0
FLAG 1376 208 0
FLAG 1536 192 0
FLAG 2048 192 0
FLAG 2080 896 0
SYMBOL res 208 64 M90
WINDOW 0 0 56 VBottom 2
WINDOW 3 32 56 VTop 2
SYMATTR InstName R1
SYMATTR Value 1k
SYMBOL voltage -80 208 R0
WINDOW 123 0 0 Left 0
WINDOW 39 0 0 Left 0
SYMATTR InstName V1
SYMATTR Value PWL repeat forever file=pal.pwl endrepeat
SYMBOL res 64 208 M180
WINDOW 0 36 76 Left 2
WINDOW 3 36 40 Left 2
SYMATTR InstName R2
SYMATTR Value 75
SYMBOL cap 352 112 R0
SYMATTR InstName C1
SYMATTR Value 220p
SYMBOL voltage -80 80 R0
SYMATTR InstName V2
SYMATTR Value 0.28
SYMBOL res 48 16 R90
WINDOW 0 0 56 VBottom 2
WINDOW 3 32 56 VTop 2
SYMATTR InstName R3
SYMATTR Value 75
SYMBOL voltage 304 -208 R0
SYMATTR InstName V3
SYMATTR Value 5
SYMBOL res 496 -112 R0
SYMATTR InstName R4
SYMATTR Value 7.8k
SYMBOL res 496 112 R0
SYMATTR InstName R5
SYMATTR Value 270
SYMBOL res 800 -128 R0
SYMATTR InstName R6
SYMATTR Value 22k
SYMBOL ZZZ\\Comparator\\Comparator_ST 672 96 R0
SYMATTR InstName U2
SYMBOL res 1008 80 R90
WINDOW 0 0 56 VBottom 2
WINDOW 3 32 56 VTop 2
SYMATTR InstName R7
SYMATTR Value 2.2k
SYMBOL cap 992 160 R0
SYMATTR InstName C2
SYMATTR Value 100n
SYMBOL cap 960 704 R90
WINDOW 0 0 32 VBottom 2
WINDOW 3 32 32 VTop 2
SYMATTR InstName C3
SYMATTR Value 330p
SYMBOL diode 1728 -64 R270
WINDOW 0 32 32 VTop 2
WINDOW 3 0 32 VBottom 2
SYMATTR InstName D1
SYMATTR Value 1N4007
SYMBOL diode 1840 -64 R270
WINDOW 0 32 32 VTop 2
WINDOW 3 0 32 VBottom 2
SYMATTR InstName D2
SYMATTR Value 1N4007
SYMBOL pnp 2000 -176 M270
WINDOW 0 79 70 VLeft 2
WINDOW 3 108 106 VLeft 2
SYMATTR InstName Q1
SYMATTR Value BC327-25
SYMBOL res 1984 -64 R270
WINDOW 0 32 56 VTop 2
WINDOW 3 0 56 VBottom 2
SYMATTR InstName R8
SYMATTR Value 100k
SYMBOL res 1728 -224 R270
WINDOW 0 32 56 VTop 2
WINDOW 3 0 56 VBottom 2
SYMATTR InstName R9
SYMATTR Value 12k
SYMBOL cap 2064 112 R0
SYMATTR InstName C5
SYMATTR Value 180n
SYMBOL diode 1728 544 R270
WINDOW 0 32 32 VTop 2
WINDOW 3 0 32 VBottom 2
SYMATTR InstName D3
SYMATTR Value 1N4007
SYMBOL pnp 2000 432 M270
WINDOW 0 79 70 VLeft 2
WINDOW 3 108 106 VLeft 2
SYMATTR InstName Q5
SYMATTR Value BC327-25
SYMBOL res 1984 544 R270
WINDOW 0 32 56 VTop 2
WINDOW 3 0 56 VBottom 2
SYMATTR InstName R14
SYMATTR Value 100k
SYMBOL res 1728 384 R270
WINDOW 0 32 56 VTop 2
WINDOW 3 0 56 VBottom 2
SYMATTR InstName R15
SYMATTR Value 12k
SYMBOL cap 2064 816 R0
SYMATTR InstName C6
SYMATTR Value 560p
SYMBOL diode 1840 544 R270
WINDOW 0 32 32 VTop 2
WINDOW 3 0 32 VBottom 2
SYMATTR InstName D4
SYMATTR Value 1N4007
SYMBOL res 1168 720 R0
SYMATTR InstName R10
SYMATTR Value 3.3k
SYMBOL res 1312 544 R0
SYMATTR InstName R11
SYMATTR Value 8.2k
SYMBOL res 1312 752 R0
SYMATTR InstName R12
SYMATTR Value 220
SYMBOL ZZZ\\Comparator\\Comparator_ST 1488 736 R0
SYMATTR InstName U1
SYMBOL res 1360 -112 R0
SYMATTR InstName R13
SYMATTR Value 6.8k
SYMBOL res 1360 112 R0
SYMATTR InstName R16
SYMATTR Value 380
SYMBOL ZZZ\\Comparator\\Comparator_ST 1536 96 R0
SYMATTR InstName U3
SYMBOL pot 1840 -368 R180
SYMATTR InstName U4
SYMBOL pot 1840 240 R180
SYMATTR InstName U5
TEXT -8 368 Left 2 !.tran 0 0.05 0.01
TEXT 872 24 Left 2 ;integrator (v-sync)
TEXT 880 648 Left 2 ;derivator (h-sync)
TEXT 1784 744 Left 2 ;horizontal ramp generator
