Version 4
SHEET 1 1176 680
WIRE 352 -112 80 -112
WIRE 352 -16 352 -112
WIRE 80 128 80 -112
FLAG 80 208 0
FLAG 352 64 0
SYMBOL Misc\\signal 80 112 R0
WINDOW 123 0 0 Left 0
WINDOW 39 0 0 Left 0
SYMATTR InstName V1
SYMATTR Value PWL repeat forever file=C:\Users\smen851\PycharmProjects\PALsignal\pal.pwl endrepeat
SYMBOL res 336 -32 R0
SYMATTR InstName R1
SYMATTR Value 100
TEXT 46 236 Left 2 !.tran 0.05
