Version 4
SHEET 1 1652 680
WIRE 896 -768 496 -768
WIRE 1152 -768 896 -768
WIRE 496 -704 496 -768
WIRE 1152 -640 1152 -768
WIRE 896 -624 896 -768
WIRE 1152 -528 1152 -560
WIRE 1312 -528 1152 -528
WIRE 1152 -448 1152 -528
WIRE 1312 -432 1312 -528
WIRE 464 -400 80 -400
WIRE 704 -400 544 -400
WIRE 896 -400 896 -544
WIRE 896 -400 768 -400
WIRE 1008 -400 896 -400
WIRE 1088 -400 1008 -400
WIRE 1152 -288 1152 -352
WIRE 1536 -288 1152 -288
WIRE 1312 -256 1312 -368
WIRE 896 -224 896 -400
WIRE 1008 -224 1008 -400
WIRE 1536 -224 1536 -288
WIRE 1152 -192 1152 -288
WIRE 1536 -48 1536 -160
WIRE 704 48 640 48
WIRE 896 48 896 -144
WIRE 896 48 704 48
WIRE 1008 48 1008 -160
WIRE 1008 48 896 48
WIRE 1152 48 1152 -112
WIRE 1152 48 1008 48
WIRE 1168 48 1152 48
WIRE 704 96 704 48
WIRE 80 144 80 -400
WIRE 80 240 80 224
FLAG 704 96 0
FLAG 496 -624 0
FLAG 80 240 0
FLAG 1312 -176 0
FLAG 1536 32 0
SYMBOL voltage 496 -720 R0
WINDOW 123 0 0 Left 0
WINDOW 39 0 0 Left 0
SYMATTR InstName V2
SYMATTR Value 5
SYMBOL voltage 80 128 R0
WINDOW 123 0 0 Left 0
WINDOW 39 0 0 Left 0
SYMATTR InstName V1
SYMATTR Value PWL repeat forever file=pal.pwl endrepeat
SYMBOL res 560 -416 R90
WINDOW 0 0 56 VBottom 2
WINDOW 3 32 56 VTop 2
SYMATTR InstName R1
SYMATTR Value 75
SYMBOL res 880 -640 R0
SYMATTR InstName R7
SYMATTR Value 10k
SYMBOL res 880 -240 R0
SYMATTR InstName R8
SYMATTR Value 10k
SYMBOL diode 768 -416 R90
WINDOW 0 0 32 VBottom 2
WINDOW 3 32 32 VTop 2
SYMATTR InstName D1
SYMATTR Value 1N4148
SYMBOL pnp 1088 -352 M180
SYMATTR InstName Q1
SYMATTR Value 2N3906
SYMBOL res 1136 -208 R0
SYMATTR InstName R2
SYMATTR Value 10k
SYMBOL res 1136 -656 R0
SYMATTR InstName R3
SYMATTR Value 500
SYMBOL diode 1296 -432 R0
SYMATTR InstName D2
SYMATTR Value 1N4148
SYMBOL res 1296 -272 R0
SYMATTR InstName R4
SYMATTR Value 100
SYMBOL cap 992 -224 R0
SYMATTR InstName 0.1n
SYMATTR Value 0.1n
SYMBOL diode 1520 -224 R0
SYMATTR InstName D3
SYMATTR Value 1N4148
SYMBOL res 1520 -64 R0
SYMATTR InstName R5
SYMATTR Value 100k
TEXT 40 264 Left 2 !.tran 0.1
